# ====================
# | Model parameters |
# ====================
#
# Continuous equation parameters
 &PARM01
# viscAh=1.E1,
# viscAhGrid=1.E-1,
 viscA4=1.E8,
 diffK4T=1.E8,
 diffK4S=1.E8,
 viscAz= 1.e-05,
 no_slip_sides = .FALSE.,
 no_slip_bottom = .FALSE.,
 diffKzT=1.e-5,
 diffKzS=1.e-5,
 beta=1.E-11,
 tAlpha=2.E-4,
 sBeta =7.4E-4,
 viscC4Leith=2.0,
 viscC4Leithd=2.0,
 viscA4GridMax=1.0,
 useAreaViscLength=.TRUE.,
 bottomDragQuadratic = 0.002,
 beta=1.E-11,
 tAlpha=2.E-4,
 sBeta =7.4E-4,
 rhonil=1035.,
 rhoConstFresh=1000.,
 gravity=9.81,
 eosType = 'JMD95Z',
 allowFreezing = .TRUE.,
 highOrderVorticity=.TRUE.,
 exactConserv=.TRUE.,
 nonlinFreeSurf=4,
 select_rStar=2,
#when using ggl90
 ivdc_kappa=10.,
#
 implicitDiffusion=.true.,
 implicitViscosity=.true.,
 implicitFreeSurface=.true.,
 convertFW2Salt = -1.,
 useRealFreshWaterFlux=.TRUE.,
 useCDscheme=.FALSE.,
 useSingleCpuIO=.TRUE.,
 vectorInvariantMomentum=.TRUE.,
 staggerTimeStep=.TRUE.,
 multiDimAdvection=.TRUE.,
# tempAdvScheme=7,
# saltAdvScheme=7,
 tempAdvScheme=33,
 saltAdvScheme=33,
# tempAdvScheme=30,
# saltAdvScheme=30,
#CMM(
 tempVertAdvScheme=3,
 saltVertAdvScheme=3,
 tempImplVertAdv=.TRUE.,
 saltImplVertAdv=.TRUE.,
#CMM)
 useNHMTerms=.FALSE.,
# turn on lopped cells
 hFacMin=0.3,
 hFacMindz=50.,
# set precision of data files
 readBinaryPrec=32,
 writeBinaryPrec=32,
 globalfiles=.FALSE.,
 rotationPeriod=86164.,
 debugLevel=0,
 /

# Elliptic solver parameters
 &PARM02
 cg2dMaxIters = 300,
 cg2dTargetResidual=1.E-8,
 /

# Time stepping parameters
 &PARM03
 nIter0 =        0,
# nTimeSteps =  240,
# nTimeSteps =  9024,
# nTimeSteps =  35041,
 nTimeSteps =  1080,
 deltaTmom   = 240.0,
 deltaTtracer= 240.0,
 deltaTClock = 240.0,
 pickupStrictlyMatch=.FALSE.,
 dumpInitAndLast=.FALSE.
 writePickupAtEnd=.FALSE.,
 pChkptFreq= 0.0,
 dumpFreq=   0.,
 taveFreq=   0.,
# dumpFreq=   31536000.,
# taveFreq=   31536000.,
# diagFreq=    2629830.,
 adjDumpFreq=  0.,
 monitorFreq= 43200.0,
 forcing_In_AB = .FALSE.,
 momDissip_In_AB=.FALSE.,
# epsAB_CD = 0.25,
#when using ab2:
# abEps = 0.1,
#when using ab3:
 doAB_onGtGs=.FALSE.,
 alph_AB=0.5,
 beta_AB=0.281105,
#
 periodicExternalForcing=.TRUE.,
 externForcingPeriod=2629800.,
 externForcingCycle=31557600.,
#
 /

# Gridding parameters
 &PARM04
 usingCartesianGrid=.FALSE.,
 usingSphericalPolarGrid=.TRUE.,
 delX=756*0.083333333,
 delY= 0.04209137, 0.04214478, 0.04219818, 0.04224777, 0.04230499, 0.04235458, 0.04240799, 
	0.04246521, 0.0425148, 0.04256821, 0.04262161, 0.04267502, 0.04272842, 0.04278183, 
	0.04283524, 0.04288864, 0.04294205, 0.04299545, 0.04304886, 0.04310226, 0.04315567, 
	0.04321289, 0.04326248, 0.0433197, 0.04336929, 0.04342651, 0.04347992, 0.04353333, 
	0.04358673, 0.04364014, 0.04369736, 0.04375076, 0.04380417, 0.04385757, 0.04391098, 
	0.0439682, 0.04401779, 0.04407501, 0.04413223, 0.04418182, 0.04423904, 0.04429626, 
	0.04434586, 0.04440308, 0.04445648, 0.0445137, 0.04456711, 0.04462051, 0.04467392, 
	0.04473114, 0.04478836, 0.04484177, 0.04489517, 0.04494858, 0.0450058, 0.04506302, 
	0.04511642, 0.04516983, 0.04522705, 0.04528427, 0.04533768, 0.04539108, 0.0454483, 
	0.04550552, 0.04555893, 0.04561234, 0.04566956, 0.04572678, 0.045784, 0.04583359, 
	0.04589462, 0.04594803, 0.04600525, 0.04605865, 0.04611588, 0.0461731, 0.0462265, 
	0.04628372, 0.04634094, 0.04639435, 0.04645157, 0.04650879, 0.04656601, 0.04661942, 
	0.04667664, 0.04673386, 0.04678726, 0.04684448, 0.0469017, 0.04695892, 0.04701233, 
	0.04707336, 0.04712677, 0.04718399, 0.04724121, 0.04729462, 0.04735565, 0.04740906,
	0.04746628, 0.04752731, 0.04758072, 0.04763794, 0.04769135, 0.04775238, 0.0478096, 
	0.04786301, 0.04792404, 0.04797745, 0.04803467, 0.0480957, 0.04814911, 0.04821014, 
	0.04826355, 0.04832077, 0.04838181, 0.04843521, 0.04849625, 0.04854965, 0.04861069, 
	0.04866791, 0.04872131, 0.04878235, 0.04883957, 0.04889679, 0.04895401, 0.04901123, 
	0.04906845, 0.04912949, 0.04918289, 0.04924393, 0.04930115, 0.04935455, 0.0494194, 
	0.04947281, 0.04953003, 0.04959106, 0.04964828, 0.04970551, 0.04976273, 0.04982376, 
	0.04988098, 0.0499382, 0.04999542, 0.05005264, 0.05011368, 0.0501709, 0.05023193, 
	0.05028534, 0.05034637, 0.05040359, 0.05046463, 0.05052185, 0.05057907, 0.05063629, 
	0.05069733, 0.05075455, 0.05081558, 0.0508728, 0.05093002, 0.05099106, 0.05104828, 
	0.0511055, 0.05116653, 0.05122375, 0.05128098, 0.05134201, 0.05140305, 0.05146027, 
	0.05151749, 0.05157852, 0.05163574, 0.05169296, 0.051754, 0.05181503, 0.05187225, 
	0.05192947, 0.05199051, 0.05205154, 0.05210876, 0.05216599, 0.05222702, 0.05228806, 
	0.05234528, 0.0524025, 0.05246353, 0.05252457, 0.05258179, 0.05264282, 0.05270004, 
	0.05276108, 0.05282211, 0.05287933, 0.05294037, 0.05299759, 0.05305862, 0.05311584, 
	0.05317688, 0.05323792, 0.05329514, 0.05335617, 0.05341721, 0.05347443, 0.05353546, 
	0.05359268, 0.05365372, 0.05371475, 0.05377197, 0.05383301, 0.05389404, 0.05395508, 
	0.0540123, 0.05407333, 0.05413055, 0.05419159, 0.05425262, 0.05430984, 0.05437469, 
	0.05443192, 0.05449295, 0.05455017, 0.05461121, 0.05467224, 0.05473328, 0.0547905, 
	0.05485153, 0.05491257, 0.0549736, 0.05503082, 0.05509186, 0.05515289, 0.05521393, 
	0.05527115, 0.05533218, 0.05539322, 0.05545425, 0.05551147, 0.05557632, 0.05563354, 
	0.05569458, 0.0557518, 0.05581665, 0.05587387, 0.05593491, 0.05599594, 0.05605698, 
	0.0561142, 0.05617905, 0.05623627, 0.0562973, 0.05635834, 0.05641937, 0.05647659, 
	0.05653763, 0.05659866, 0.0566597, 0.05672073, 0.05678177, 0.0568428, 0.05690002, 
	0.05696106, 0.05702209, 0.05708313, 0.05714417, 0.0572052, 0.05726242, 0.05732346, 
	0.05738831, 0.05744553, 0.05750656, 0.0575676, 0.05762863, 0.05768585, 0.0577507, 
	0.05780792, 0.05786896, 0.05792999, 0.05799103, 0.05805206, 0.0581131, 0.05817413, 
	0.05823135, 0.05829239, 0.05835724, 0.05841446, 0.05847549, 0.05853653, 0.05859756, 
	0.05865479, 0.05871964, 0.05877686, 0.05884171, 0.05889893, 0.05895996, 0.059021, 
	0.05908203, 0.05914307, 0.05920029, 0.05926514, 0.05932236, 0.05938721, 0.05944443, 
	0.05950546, 0.0595665, 0.05962753, 0.05968475, 0.0597496, 0.05981064, 0.05986786, 
	0.05992889, 0.05998993, 0.06005096, 0.060112, 0.06017303, 0.06023407, 0.06029129, 
	0.06035614, 0.06041336, 0.0604744, 0.06053543, 0.06059647, 0.06065369, 0.06071854, 
	0.06077576, 0.06084061, 0.06089783, 0.06095886, 0.06101608, 0.06108093, 0.06113815, 
	0.061203, 0.06126022, 0.06132126, 0.06138229, 0.06143951, 0.06150436, 0.06156158, 
	0.06162262, 0.06168365, 0.06174469, 0.06180191, 0.06186676, 0.06192398, 0.06198502, 
	0.06204224, 0.06210709, 0.06216431, 0.06222534, 0.06228638, 0.06234741, 0.06240463, 
	0.06246567, 0.0625267, 0.06258774, 0.06264496, 0.06270981, 0.06276703, 0.06282425, 
	0.0628891, 0.06294632, 0.06300735, 0.06306458, 0.06312943, 0.06318665, 0.06324768, 
	0.0633049, 0.06336594, 0.06342697, 0.06348419, 0.06354523, 0.06360626, 0.0636673, 
	0.06372452, 0.06378555, 0.06384277, 0.06390381, 0.06396484, 0.06402206, 0.0640831, 
	0.06414413, 0.06420135, 0.06426239, 0.06431961, 0.06438446, 0.06443787, 0.0644989, 
	0.06455994, 0.06461716, 0.06467819, 0.06473923, 0.06479263, 0.06485748, 0.0649147, 
	0.06497192, 0.06503296, 0.06509399, 0.06515121, 0.06520844, 0.06526947, 0.06532669, 
	0.06538773, 0.06544876, 0.06550217, 0.0655632, 0.06562424, 0.06568146, 0.06574249, 
	0.0657959, 0.06586075, 0.06591415, 0.06597519, 0.06603622, 0.06608963, 0.06615448, 
	0.06620789, 0.06626892, 0.06632614, 0.06638336, 0.0664444, 0.0664978, 0.06656265, 
	0.06661606, 0.06667709, 0.06673431, 0.06679153, 0.06684875, 0.06690979, 0.06696701, 
	0.06702423, 0.06708145, 0.06713867, 0.06719971, 0.06725311, 0.06731415, 0.06737137, 
	0.06742859, 0.06748581, 0.06754303, 0.06760406, 0.06765747, 0.06771469, 0.06777573, 
	0.06782913, 0.06789017, 0.06794357, 0.06800461, 0.06806183, 0.06811523, 0.06817245, 
	0.06823349, 0.0682869, 0.06834412, 0.06840134, 0.06846237, 0.06851196, 0.068573, 
	0.06863022, 0.06868362, 0.06874084, 0.06879807, 0.06885529, 0.06891251, 0.06896591, 
	0.06902313, 0.06908035, 0.06913757, 0.06919098, 0.0692482, 0.06930542, 0.06935883, 
	0.06941605, 0.06947327, 0.06952667, 0.06958389, 0.0696373, 0.06969452, 0.06975174, 
	0.06980515, 0.06986237, 0.06991577, 0.06997299, 0.0700264, 0.0700798, 0.07013702, 
	0.07019424, 0.07024765, 0.07030106, 0.07035828, 0.07041168, 0.07046509, 0.07052231, 
	0.07057571, 0.07062912, 0.07068634, 0.07073975, 0.07079315, 0.07084846, 0.07090187, 
	0.07095528, 0.07101059, 0.0710659, 0.07111931, 0.07117081, 0.07122612, 0.07128143, 
	0.07133293, 0.07138824, 0.07143974, 0.07149506, 0.07154655, 0.07160187, 0.07165337, 
	0.07170677,

delZ= 2, 2.2, 2.4, 2.6, 2.8, 3.1, 3.3, 3.6, 4, 4.5, 4.5, 5, 5, 5, 5,
       5, 5, 5, 5, 5, 5, 5, 5, 5, 5, 5, 5, 5, 5, 5, 5, 5, 6, 7, 8, 9, 10, 10, 10, 10,
       10, 10, 10, 10, 10, 10, 10, 10, 10, 12, 14, 16, 18, 20, 22, 23, 25, 25,
       25, 25, 25, 28, 32, 40, 50, 50, 50, 50, 50, 50, 50, 50, 50, 50, 65, 85,
       100, 100, 100, 100, 100, 100, 100, 120, 140, 160, 180, 200, 200,
       200, 200, 200, 200, 200, 200, 200, 200, 200, 200, 200, 200, 200, 200, 200,
 ygOrigin = -59.68348,
 xgOrigin = 288.6667,

 /

# Input datasets
 &PARM05
  bathyFile = 'Bathy_ArgBasin_12sp.bin',
# These are from final timestep of iter 17 of optim3yr.
  hydrogThetaFile='THETA_AB12_IC_20161128.bin'
  hydrogSaltFile='SALT_AB12_IC_20161128.bin'
  uVelInitFile='UVEL_AB12_IC_20161128.bin'
  vVelInitFile='VVEL_AB12_IC_20161128.bin'
  adTapeDir = '/tmp/',
#  mdsioLocalDir = '/tmp/',
 /
